tests/data/power_flow/pandapower-test-sym_load/sym_output.json
{
  "line": [
    {
      "id": 3,
      "loading": 0.018790041705185122,
      "p_from": 30073.523513345455,
      "q_from": -340411.3593327973,
      "i_from": 18.79004170518512,
      "s_from": 341737.19490174117,
      "p_to": -30008.07041009451,
      "q_to": -6001.614068247269,
      "i_to": 1.6822405075144284,
      "s_to": 30602.347314566792
    }
  ],
  "node": [
    {
      "id": 1,
      "u_pu": 1.0000335718060915,
      "u": 10500.35250396396,
      "u_angle": -6.379432888921604e-06
    },
    {
      "id": 2,
      "u_pu": 1.0002688099294819,
      "u": 10502.822504259559,
      "u_angle": -0.0004399858675123107
    }
  ],
  "source": [
    {
      "id": 4,
      "p": 30073.52350629666,
      "q": -340411.3593292729,
      "i": 18.790041704957982,
      "s": 341737.19489761005
    }
  ],
  "sym_load": [
    {
      "id": 6,
      "p": 10000.0,
      "q": 2000.0,
      "i": 0.5605960278928837,
      "s": 10198.03902718557
    },
    {
      "id": 7,
      "p": 10002.688099294817,
      "q": 2000.5376198589638,
      "i": 0.5607467216716092,
      "s": 10200.78036133732
    },
    {
      "id": 8,
      "p": 10005.376921177422,
      "q": 2001.0753842354839,
      "i": 0.5608974559583192,
      "s": 10203.522432386913
    },
    {
      "id": 9,
      "p": 0.0,
      "q": 0.0,
      "i": 0.0,
      "s": 0.0
    }
  ]
}